* NGSPICE file created from router_1x3.ext - technology: sky130A

* Black-box entry subcircuit for sky130_fd_sc_hd__tapvpwrvgnd_1 abstract view
.subckt sky130_fd_sc_hd__tapvpwrvgnd_1 VGND VPWR
.ends

* Black-box entry subcircuit for sky130_fd_sc_hd__a22o_1 abstract view
.subckt sky130_fd_sc_hd__a22o_1 A1 A2 B1 B2 VGND VNB VPB VPWR X
.ends

* Black-box entry subcircuit for sky130_fd_sc_hd__o311a_1 abstract view
.subckt sky130_fd_sc_hd__o311a_1 A1 A2 A3 B1 C1 VGND VNB VPB VPWR X
.ends

* Black-box entry subcircuit for sky130_fd_sc_hd__fill_1 abstract view
.subckt sky130_fd_sc_hd__fill_1 VGND VNB VPB VPWR
.ends

* Black-box entry subcircuit for sky130_fd_sc_hd__decap_3 abstract view
.subckt sky130_fd_sc_hd__decap_3 VGND VNB VPB VPWR
.ends

* Black-box entry subcircuit for sky130_fd_sc_hd__decap_4 abstract view
.subckt sky130_fd_sc_hd__decap_4 VGND VNB VPB VPWR
.ends

* Black-box entry subcircuit for sky130_ef_sc_hd__decap_12 abstract view
.subckt sky130_ef_sc_hd__decap_12 VPWR VGND VPB VNB
.ends

* Black-box entry subcircuit for sky130_fd_sc_hd__nand4_2 abstract view
.subckt sky130_fd_sc_hd__nand4_2 A B C D VGND VNB VPB VPWR Y
.ends

* Black-box entry subcircuit for sky130_fd_sc_hd__nand2_1 abstract view
.subckt sky130_fd_sc_hd__nand2_1 A B VGND VNB VPB VPWR Y
.ends

* Black-box entry subcircuit for sky130_fd_sc_hd__fill_2 abstract view
.subckt sky130_fd_sc_hd__fill_2 VGND VNB VPB VPWR
.ends

* Black-box entry subcircuit for sky130_fd_sc_hd__dfxtp_1 abstract view
.subckt sky130_fd_sc_hd__dfxtp_1 CLK D VGND VNB VPB VPWR Q
.ends

* Black-box entry subcircuit for sky130_fd_sc_hd__decap_6 abstract view
.subckt sky130_fd_sc_hd__decap_6 VGND VNB VPB VPWR
.ends

* Black-box entry subcircuit for sky130_fd_sc_hd__or2_1 abstract view
.subckt sky130_fd_sc_hd__or2_1 A B VGND VNB VPB VPWR X
.ends

* Black-box entry subcircuit for sky130_fd_sc_hd__o21ai_2 abstract view
.subckt sky130_fd_sc_hd__o21ai_2 A1 A2 B1 VGND VNB VPB VPWR Y
.ends

* Black-box entry subcircuit for sky130_fd_sc_hd__decap_8 abstract view
.subckt sky130_fd_sc_hd__decap_8 VGND VNB VPB VPWR
.ends

* Black-box entry subcircuit for sky130_fd_sc_hd__o311a_4 abstract view
.subckt sky130_fd_sc_hd__o311a_4 A1 A2 A3 B1 C1 VGND VNB VPB VPWR X
.ends

* Black-box entry subcircuit for sky130_fd_sc_hd__and4_1 abstract view
.subckt sky130_fd_sc_hd__and4_1 A B C D VGND VNB VPB VPWR X
.ends

* Black-box entry subcircuit for sky130_fd_sc_hd__a31o_1 abstract view
.subckt sky130_fd_sc_hd__a31o_1 A1 A2 A3 B1 VGND VNB VPB VPWR X
.ends

* Black-box entry subcircuit for sky130_fd_sc_hd__a32o_1 abstract view
.subckt sky130_fd_sc_hd__a32o_1 A1 A2 A3 B1 B2 VGND VNB VPB VPWR X
.ends

* Black-box entry subcircuit for sky130_fd_sc_hd__o22a_1 abstract view
.subckt sky130_fd_sc_hd__o22a_1 A1 A2 B1 B2 VGND VNB VPB VPWR X
.ends

* Black-box entry subcircuit for sky130_fd_sc_hd__o21a_1 abstract view
.subckt sky130_fd_sc_hd__o21a_1 A1 A2 B1 VGND VNB VPB VPWR X
.ends

* Black-box entry subcircuit for sky130_fd_sc_hd__dlygate4sd3_1 abstract view
.subckt sky130_fd_sc_hd__dlygate4sd3_1 A VGND VNB VPB VPWR X
.ends

* Black-box entry subcircuit for sky130_fd_sc_hd__o211a_1 abstract view
.subckt sky130_fd_sc_hd__o211a_1 A1 A2 B1 C1 VGND VNB VPB VPWR X
.ends

* Black-box entry subcircuit for sky130_fd_sc_hd__o211ai_1 abstract view
.subckt sky130_fd_sc_hd__o211ai_1 A1 A2 B1 C1 VGND VNB VPB VPWR Y
.ends

* Black-box entry subcircuit for sky130_fd_sc_hd__clkbuf_4 abstract view
.subckt sky130_fd_sc_hd__clkbuf_4 A VGND VNB VPB VPWR X
.ends

* Black-box entry subcircuit for sky130_fd_sc_hd__clkbuf_1 abstract view
.subckt sky130_fd_sc_hd__clkbuf_1 A VGND VNB VPB VPWR X
.ends

* Black-box entry subcircuit for sky130_fd_sc_hd__buf_4 abstract view
.subckt sky130_fd_sc_hd__buf_4 A VGND VNB VPB VPWR X
.ends

* Black-box entry subcircuit for sky130_fd_sc_hd__o311ai_1 abstract view
.subckt sky130_fd_sc_hd__o311ai_1 A1 A2 A3 B1 C1 VGND VNB VPB VPWR Y
.ends

* Black-box entry subcircuit for sky130_fd_sc_hd__a21oi_1 abstract view
.subckt sky130_fd_sc_hd__a21oi_1 A1 A2 B1 VGND VNB VPB VPWR Y
.ends

* Black-box entry subcircuit for sky130_fd_sc_hd__o21ai_1 abstract view
.subckt sky130_fd_sc_hd__o21ai_1 A1 A2 B1 VGND VNB VPB VPWR Y
.ends

* Black-box entry subcircuit for sky130_fd_sc_hd__nand2_2 abstract view
.subckt sky130_fd_sc_hd__nand2_2 A B VGND VNB VPB VPWR Y
.ends

* Black-box entry subcircuit for sky130_fd_sc_hd__a21bo_1 abstract view
.subckt sky130_fd_sc_hd__a21bo_1 A1 A2 B1_N VGND VNB VPB VPWR X
.ends

* Black-box entry subcircuit for sky130_fd_sc_hd__nor2_2 abstract view
.subckt sky130_fd_sc_hd__nor2_2 A B VGND VNB VPB VPWR Y
.ends

* Black-box entry subcircuit for sky130_fd_sc_hd__nor2b_2 abstract view
.subckt sky130_fd_sc_hd__nor2b_2 A B_N VGND VNB VPB VPWR Y
.ends

* Black-box entry subcircuit for sky130_fd_sc_hd__clkbuf_16 abstract view
.subckt sky130_fd_sc_hd__clkbuf_16 A VGND VNB VPB VPWR X
.ends

* Black-box entry subcircuit for sky130_fd_sc_hd__o21bai_1 abstract view
.subckt sky130_fd_sc_hd__o21bai_1 A1 A2 B1_N VGND VNB VPB VPWR Y
.ends

* Black-box entry subcircuit for sky130_fd_sc_hd__a21o_1 abstract view
.subckt sky130_fd_sc_hd__a21o_1 A1 A2 B1 VGND VNB VPB VPWR X
.ends

* Black-box entry subcircuit for sky130_fd_sc_hd__nand4b_1 abstract view
.subckt sky130_fd_sc_hd__nand4b_1 A_N B C D VGND VNB VPB VPWR Y
.ends

* Black-box entry subcircuit for sky130_fd_sc_hd__mux4_1 abstract view
.subckt sky130_fd_sc_hd__mux4_1 A0 A1 A2 A3 S0 S1 VGND VNB VPB VPWR X
.ends

* Black-box entry subcircuit for sky130_fd_sc_hd__and4b_1 abstract view
.subckt sky130_fd_sc_hd__and4b_1 A_N B C D VGND VNB VPB VPWR X
.ends

* Black-box entry subcircuit for sky130_fd_sc_hd__diode_2 abstract view
.subckt sky130_fd_sc_hd__diode_2 DIODE VGND VNB VPB VPWR
.ends

* Black-box entry subcircuit for sky130_fd_sc_hd__nand4_1 abstract view
.subckt sky130_fd_sc_hd__nand4_1 A B C D VGND VNB VPB VPWR Y
.ends

* Black-box entry subcircuit for sky130_fd_sc_hd__dfxtp_2 abstract view
.subckt sky130_fd_sc_hd__dfxtp_2 CLK D VGND VNB VPB VPWR Q
.ends

* Black-box entry subcircuit for sky130_fd_sc_hd__buf_2 abstract view
.subckt sky130_fd_sc_hd__buf_2 A VGND VNB VPB VPWR X
.ends

* Black-box entry subcircuit for sky130_fd_sc_hd__o41a_1 abstract view
.subckt sky130_fd_sc_hd__o41a_1 A1 A2 A3 A4 B1 VGND VNB VPB VPWR X
.ends

* Black-box entry subcircuit for sky130_fd_sc_hd__and3_1 abstract view
.subckt sky130_fd_sc_hd__and3_1 A B C VGND VNB VPB VPWR X
.ends

* Black-box entry subcircuit for sky130_fd_sc_hd__inv_2 abstract view
.subckt sky130_fd_sc_hd__inv_2 A VGND VNB VPB VPWR Y
.ends

* Black-box entry subcircuit for sky130_fd_sc_hd__o22ai_1 abstract view
.subckt sky130_fd_sc_hd__o22ai_1 A1 A2 B1 B2 VGND VNB VPB VPWR Y
.ends

* Black-box entry subcircuit for sky130_fd_sc_hd__o31a_4 abstract view
.subckt sky130_fd_sc_hd__o31a_4 A1 A2 A3 B1 VGND VNB VPB VPWR X
.ends

* Black-box entry subcircuit for sky130_fd_sc_hd__mux2_1 abstract view
.subckt sky130_fd_sc_hd__mux2_1 A0 A1 S VGND VNB VPB VPWR X
.ends

* Black-box entry subcircuit for sky130_fd_sc_hd__and3b_1 abstract view
.subckt sky130_fd_sc_hd__and3b_1 A_N B C VGND VNB VPB VPWR X
.ends

* Black-box entry subcircuit for sky130_fd_sc_hd__o21ba_1 abstract view
.subckt sky130_fd_sc_hd__o21ba_1 A1 A2 B1_N VGND VNB VPB VPWR X
.ends

* Black-box entry subcircuit for sky130_fd_sc_hd__and2b_1 abstract view
.subckt sky130_fd_sc_hd__and2b_1 A_N B VGND VNB VPB VPWR X
.ends

* Black-box entry subcircuit for sky130_fd_sc_hd__nor3_1 abstract view
.subckt sky130_fd_sc_hd__nor3_1 A B C VGND VNB VPB VPWR Y
.ends

* Black-box entry subcircuit for sky130_fd_sc_hd__and2_2 abstract view
.subckt sky130_fd_sc_hd__and2_2 A B VGND VNB VPB VPWR X
.ends

* Black-box entry subcircuit for sky130_fd_sc_hd__a31oi_4 abstract view
.subckt sky130_fd_sc_hd__a31oi_4 A1 A2 A3 B1 VGND VNB VPB VPWR Y
.ends

* Black-box entry subcircuit for sky130_fd_sc_hd__nand3_1 abstract view
.subckt sky130_fd_sc_hd__nand3_1 A B C VGND VNB VPB VPWR Y
.ends

* Black-box entry subcircuit for sky130_fd_sc_hd__a221oi_1 abstract view
.subckt sky130_fd_sc_hd__a221oi_1 A1 A2 B1 B2 C1 VGND VNB VPB VPWR Y
.ends

* Black-box entry subcircuit for sky130_fd_sc_hd__nor2_4 abstract view
.subckt sky130_fd_sc_hd__nor2_4 A B VGND VNB VPB VPWR Y
.ends

* Black-box entry subcircuit for sky130_fd_sc_hd__o211ai_4 abstract view
.subckt sky130_fd_sc_hd__o211ai_4 A1 A2 B1 C1 VGND VNB VPB VPWR Y
.ends

* Black-box entry subcircuit for sky130_fd_sc_hd__a21oi_4 abstract view
.subckt sky130_fd_sc_hd__a21oi_4 A1 A2 B1 VGND VNB VPB VPWR Y
.ends

* Black-box entry subcircuit for sky130_fd_sc_hd__a31oi_1 abstract view
.subckt sky130_fd_sc_hd__a31oi_1 A1 A2 A3 B1 VGND VNB VPB VPWR Y
.ends

* Black-box entry subcircuit for sky130_fd_sc_hd__a21oi_2 abstract view
.subckt sky130_fd_sc_hd__a21oi_2 A1 A2 B1 VGND VNB VPB VPWR Y
.ends

* Black-box entry subcircuit for sky130_fd_sc_hd__nand4_4 abstract view
.subckt sky130_fd_sc_hd__nand4_4 A B C D VGND VNB VPB VPWR Y
.ends

* Black-box entry subcircuit for sky130_fd_sc_hd__and3_2 abstract view
.subckt sky130_fd_sc_hd__and3_2 A B C VGND VNB VPB VPWR X
.ends

* Black-box entry subcircuit for sky130_fd_sc_hd__nor2_1 abstract view
.subckt sky130_fd_sc_hd__nor2_1 A B VGND VNB VPB VPWR Y
.ends

* Black-box entry subcircuit for sky130_fd_sc_hd__o21ai_4 abstract view
.subckt sky130_fd_sc_hd__o21ai_4 A1 A2 B1 VGND VNB VPB VPWR Y
.ends

* Black-box entry subcircuit for sky130_fd_sc_hd__a41o_1 abstract view
.subckt sky130_fd_sc_hd__a41o_1 A1 A2 A3 A4 B1 VGND VNB VPB VPWR X
.ends

* Black-box entry subcircuit for sky130_fd_sc_hd__a21boi_1 abstract view
.subckt sky130_fd_sc_hd__a21boi_1 A1 A2 B1_N VGND VNB VPB VPWR Y
.ends

* Black-box entry subcircuit for sky130_fd_sc_hd__o31a_1 abstract view
.subckt sky130_fd_sc_hd__o31a_1 A1 A2 A3 B1 VGND VNB VPB VPWR X
.ends

* Black-box entry subcircuit for sky130_fd_sc_hd__o22ai_2 abstract view
.subckt sky130_fd_sc_hd__o22ai_2 A1 A2 B1 B2 VGND VNB VPB VPWR Y
.ends

* Black-box entry subcircuit for sky130_fd_sc_hd__or2b_1 abstract view
.subckt sky130_fd_sc_hd__or2b_1 A B_N VGND VNB VPB VPWR X
.ends

* Black-box entry subcircuit for sky130_fd_sc_hd__or3b_1 abstract view
.subckt sky130_fd_sc_hd__or3b_1 A B C_N VGND VNB VPB VPWR X
.ends

* Black-box entry subcircuit for sky130_fd_sc_hd__clkbuf_8 abstract view
.subckt sky130_fd_sc_hd__clkbuf_8 A VGND VNB VPB VPWR X
.ends

* Black-box entry subcircuit for sky130_fd_sc_hd__a32oi_4 abstract view
.subckt sky130_fd_sc_hd__a32oi_4 A1 A2 A3 B1 B2 VGND VNB VPB VPWR Y
.ends

* Black-box entry subcircuit for sky130_fd_sc_hd__o2bb2a_1 abstract view
.subckt sky130_fd_sc_hd__o2bb2a_1 A1_N A2_N B1 B2 VGND VNB VPB VPWR X
.ends

* Black-box entry subcircuit for sky130_fd_sc_hd__nor4_1 abstract view
.subckt sky130_fd_sc_hd__nor4_1 A B C D VGND VNB VPB VPWR Y
.ends

* Black-box entry subcircuit for sky130_fd_sc_hd__clkbuf_2 abstract view
.subckt sky130_fd_sc_hd__clkbuf_2 A VGND VNB VPB VPWR X
.ends

* Black-box entry subcircuit for sky130_fd_sc_hd__or3_2 abstract view
.subckt sky130_fd_sc_hd__or3_2 A B C VGND VNB VPB VPWR X
.ends

* Black-box entry subcircuit for sky130_fd_sc_hd__and2_1 abstract view
.subckt sky130_fd_sc_hd__and2_1 A B VGND VNB VPB VPWR X
.ends

* Black-box entry subcircuit for sky130_fd_sc_hd__nand3b_4 abstract view
.subckt sky130_fd_sc_hd__nand3b_4 A_N B C VGND VNB VPB VPWR Y
.ends

* Black-box entry subcircuit for sky130_fd_sc_hd__or3_1 abstract view
.subckt sky130_fd_sc_hd__or3_1 A B C VGND VNB VPB VPWR X
.ends

* Black-box entry subcircuit for sky130_fd_sc_hd__and4b_2 abstract view
.subckt sky130_fd_sc_hd__and4b_2 A_N B C D VGND VNB VPB VPWR X
.ends

* Black-box entry subcircuit for sky130_fd_sc_hd__mux4_2 abstract view
.subckt sky130_fd_sc_hd__mux4_2 A0 A1 A2 A3 S0 S1 VGND VNB VPB VPWR X
.ends

* Black-box entry subcircuit for sky130_fd_sc_hd__o22a_4 abstract view
.subckt sky130_fd_sc_hd__o22a_4 A1 A2 B1 B2 VGND VNB VPB VPWR X
.ends

* Black-box entry subcircuit for sky130_fd_sc_hd__nand2_4 abstract view
.subckt sky130_fd_sc_hd__nand2_4 A B VGND VNB VPB VPWR Y
.ends

* Black-box entry subcircuit for sky130_fd_sc_hd__a211o_1 abstract view
.subckt sky130_fd_sc_hd__a211o_1 A1 A2 B1 C1 VGND VNB VPB VPWR X
.ends

* Black-box entry subcircuit for sky130_fd_sc_hd__nand3b_1 abstract view
.subckt sky130_fd_sc_hd__nand3b_1 A_N B C VGND VNB VPB VPWR Y
.ends

* Black-box entry subcircuit for sky130_fd_sc_hd__a41oi_4 abstract view
.subckt sky130_fd_sc_hd__a41oi_4 A1 A2 A3 A4 B1 VGND VNB VPB VPWR Y
.ends

* Black-box entry subcircuit for sky130_fd_sc_hd__or4_4 abstract view
.subckt sky130_fd_sc_hd__or4_4 A B C D VGND VNB VPB VPWR X
.ends

* Black-box entry subcircuit for sky130_fd_sc_hd__buf_6 abstract view
.subckt sky130_fd_sc_hd__buf_6 A VGND VNB VPB VPWR X
.ends

* Black-box entry subcircuit for sky130_fd_sc_hd__a221oi_2 abstract view
.subckt sky130_fd_sc_hd__a221oi_2 A1 A2 B1 B2 C1 VGND VNB VPB VPWR Y
.ends

* Black-box entry subcircuit for sky130_fd_sc_hd__dfxtp_4 abstract view
.subckt sky130_fd_sc_hd__dfxtp_4 CLK D VGND VNB VPB VPWR Q
.ends

* Black-box entry subcircuit for sky130_fd_sc_hd__o2bb2a_2 abstract view
.subckt sky130_fd_sc_hd__o2bb2a_2 A1_N A2_N B1 B2 VGND VNB VPB VPWR X
.ends

* Black-box entry subcircuit for sky130_fd_sc_hd__o31ai_4 abstract view
.subckt sky130_fd_sc_hd__o31ai_4 A1 A2 A3 B1 VGND VNB VPB VPWR Y
.ends

* Black-box entry subcircuit for sky130_fd_sc_hd__o221a_2 abstract view
.subckt sky130_fd_sc_hd__o221a_2 A1 A2 B1 B2 C1 VGND VNB VPB VPWR X
.ends

* Black-box entry subcircuit for sky130_fd_sc_hd__a211oi_1 abstract view
.subckt sky130_fd_sc_hd__a211oi_1 A1 A2 B1 C1 VGND VNB VPB VPWR Y
.ends

* Black-box entry subcircuit for sky130_fd_sc_hd__o221a_1 abstract view
.subckt sky130_fd_sc_hd__o221a_1 A1 A2 B1 B2 C1 VGND VNB VPB VPWR X
.ends

* Black-box entry subcircuit for sky130_fd_sc_hd__a22oi_2 abstract view
.subckt sky130_fd_sc_hd__a22oi_2 A1 A2 B1 B2 VGND VNB VPB VPWR Y
.ends

* Black-box entry subcircuit for sky130_fd_sc_hd__xnor2_1 abstract view
.subckt sky130_fd_sc_hd__xnor2_1 A B VGND VNB VPB VPWR Y
.ends

* Black-box entry subcircuit for sky130_fd_sc_hd__nand4b_2 abstract view
.subckt sky130_fd_sc_hd__nand4b_2 A_N B C D VGND VNB VPB VPWR Y
.ends

* Black-box entry subcircuit for sky130_fd_sc_hd__nand4b_4 abstract view
.subckt sky130_fd_sc_hd__nand4b_4 A_N B C D VGND VNB VPB VPWR Y
.ends

* Black-box entry subcircuit for sky130_fd_sc_hd__a22oi_4 abstract view
.subckt sky130_fd_sc_hd__a22oi_4 A1 A2 B1 B2 VGND VNB VPB VPWR Y
.ends

* Black-box entry subcircuit for sky130_fd_sc_hd__o31ai_1 abstract view
.subckt sky130_fd_sc_hd__o31ai_1 A1 A2 A3 B1 VGND VNB VPB VPWR Y
.ends

* Black-box entry subcircuit for sky130_fd_sc_hd__o311a_2 abstract view
.subckt sky130_fd_sc_hd__o311a_2 A1 A2 A3 B1 C1 VGND VNB VPB VPWR X
.ends

* Black-box entry subcircuit for sky130_fd_sc_hd__buf_1 abstract view
.subckt sky130_fd_sc_hd__buf_1 A VGND VNB VPB VPWR X
.ends

* Black-box entry subcircuit for sky130_fd_sc_hd__o211a_2 abstract view
.subckt sky130_fd_sc_hd__o211a_2 A1 A2 B1 C1 VGND VNB VPB VPWR X
.ends

* Black-box entry subcircuit for sky130_fd_sc_hd__and4bb_1 abstract view
.subckt sky130_fd_sc_hd__and4bb_1 A_N B_N C D VGND VNB VPB VPWR X
.ends

* Black-box entry subcircuit for sky130_fd_sc_hd__o2bb2ai_1 abstract view
.subckt sky130_fd_sc_hd__o2bb2ai_1 A1_N A2_N B1 B2 VGND VNB VPB VPWR Y
.ends

* Black-box entry subcircuit for sky130_fd_sc_hd__clkinv_4 abstract view
.subckt sky130_fd_sc_hd__clkinv_4 A VGND VNB VPB VPWR Y
.ends

* Black-box entry subcircuit for sky130_fd_sc_hd__or4b_1 abstract view
.subckt sky130_fd_sc_hd__or4b_1 A B C D_N VGND VNB VPB VPWR X
.ends

* Black-box entry subcircuit for sky130_fd_sc_hd__o41a_2 abstract view
.subckt sky130_fd_sc_hd__o41a_2 A1 A2 A3 A4 B1 VGND VNB VPB VPWR X
.ends

* Black-box entry subcircuit for sky130_fd_sc_hd__buf_8 abstract view
.subckt sky130_fd_sc_hd__buf_8 A VGND VNB VPB VPWR X
.ends

* Black-box entry subcircuit for sky130_fd_sc_hd__a41o_2 abstract view
.subckt sky130_fd_sc_hd__a41o_2 A1 A2 A3 A4 B1 VGND VNB VPB VPWR X
.ends

* Black-box entry subcircuit for sky130_fd_sc_hd__nand2b_4 abstract view
.subckt sky130_fd_sc_hd__nand2b_4 A_N B VGND VNB VPB VPWR Y
.ends

* Black-box entry subcircuit for sky130_fd_sc_hd__a22oi_1 abstract view
.subckt sky130_fd_sc_hd__a22oi_1 A1 A2 B1 B2 VGND VNB VPB VPWR Y
.ends

* Black-box entry subcircuit for sky130_fd_sc_hd__and4_2 abstract view
.subckt sky130_fd_sc_hd__and4_2 A B C D VGND VNB VPB VPWR X
.ends

* Black-box entry subcircuit for sky130_fd_sc_hd__o221ai_2 abstract view
.subckt sky130_fd_sc_hd__o221ai_2 A1 A2 B1 B2 C1 VGND VNB VPB VPWR Y
.ends

* Black-box entry subcircuit for sky130_fd_sc_hd__or4_1 abstract view
.subckt sky130_fd_sc_hd__or4_1 A B C D VGND VNB VPB VPWR X
.ends

* Black-box entry subcircuit for sky130_fd_sc_hd__or4bb_1 abstract view
.subckt sky130_fd_sc_hd__or4bb_1 A B C_N D_N VGND VNB VPB VPWR X
.ends

* Black-box entry subcircuit for sky130_fd_sc_hd__nand2b_2 abstract view
.subckt sky130_fd_sc_hd__nand2b_2 A_N B VGND VNB VPB VPWR Y
.ends

* Black-box entry subcircuit for sky130_fd_sc_hd__xor2_4 abstract view
.subckt sky130_fd_sc_hd__xor2_4 A B VGND VNB VPB VPWR X
.ends

* Black-box entry subcircuit for sky130_fd_sc_hd__o41a_4 abstract view
.subckt sky130_fd_sc_hd__o41a_4 A1 A2 A3 A4 B1 VGND VNB VPB VPWR X
.ends

* Black-box entry subcircuit for sky130_fd_sc_hd__o2111a_1 abstract view
.subckt sky130_fd_sc_hd__o2111a_1 A1 A2 B1 C1 D1 VGND VNB VPB VPWR X
.ends

* Black-box entry subcircuit for sky130_fd_sc_hd__xnor2_4 abstract view
.subckt sky130_fd_sc_hd__xnor2_4 A B VGND VNB VPB VPWR Y
.ends

* Black-box entry subcircuit for sky130_fd_sc_hd__o211ai_2 abstract view
.subckt sky130_fd_sc_hd__o211ai_2 A1 A2 B1 C1 VGND VNB VPB VPWR Y
.ends

* Black-box entry subcircuit for sky130_fd_sc_hd__a32oi_2 abstract view
.subckt sky130_fd_sc_hd__a32oi_2 A1 A2 A3 B1 B2 VGND VNB VPB VPWR Y
.ends

* Black-box entry subcircuit for sky130_fd_sc_hd__a311oi_4 abstract view
.subckt sky130_fd_sc_hd__a311oi_4 A1 A2 A3 B1 C1 VGND VNB VPB VPWR Y
.ends

* Black-box entry subcircuit for sky130_fd_sc_hd__o22a_2 abstract view
.subckt sky130_fd_sc_hd__o22a_2 A1 A2 B1 B2 VGND VNB VPB VPWR X
.ends

* Black-box entry subcircuit for sky130_fd_sc_hd__o221ai_4 abstract view
.subckt sky130_fd_sc_hd__o221ai_4 A1 A2 B1 B2 C1 VGND VNB VPB VPWR Y
.ends

* Black-box entry subcircuit for sky130_fd_sc_hd__nor3b_1 abstract view
.subckt sky130_fd_sc_hd__nor3b_1 A B C_N VGND VNB VPB VPWR Y
.ends

* Black-box entry subcircuit for sky130_fd_sc_hd__nand3_2 abstract view
.subckt sky130_fd_sc_hd__nand3_2 A B C VGND VNB VPB VPWR Y
.ends

* Black-box entry subcircuit for sky130_fd_sc_hd__and4bb_4 abstract view
.subckt sky130_fd_sc_hd__and4bb_4 A_N B_N C D VGND VNB VPB VPWR X
.ends

* Black-box entry subcircuit for sky130_fd_sc_hd__a2bb2o_1 abstract view
.subckt sky130_fd_sc_hd__a2bb2o_1 A1_N A2_N B1 B2 VGND VNB VPB VPWR X
.ends

* Black-box entry subcircuit for sky130_fd_sc_hd__o31a_2 abstract view
.subckt sky130_fd_sc_hd__o31a_2 A1 A2 A3 B1 VGND VNB VPB VPWR X
.ends

* Black-box entry subcircuit for sky130_fd_sc_hd__or2b_2 abstract view
.subckt sky130_fd_sc_hd__or2b_2 A B_N VGND VNB VPB VPWR X
.ends

* Black-box entry subcircuit for sky130_fd_sc_hd__or4_2 abstract view
.subckt sky130_fd_sc_hd__or4_2 A B C D VGND VNB VPB VPWR X
.ends

* Black-box entry subcircuit for sky130_fd_sc_hd__nand3_4 abstract view
.subckt sky130_fd_sc_hd__nand3_4 A B C VGND VNB VPB VPWR Y
.ends

* Black-box entry subcircuit for sky130_fd_sc_hd__a21o_2 abstract view
.subckt sky130_fd_sc_hd__a21o_2 A1 A2 B1 VGND VNB VPB VPWR X
.ends

.subckt router_1x3 VGND VPWR busy clock data_in[0] data_in[1] data_in[2] data_in[3]
+ data_in[4] data_in[5] data_in[6] data_in[7] data_out_0[0] data_out_0[1] data_out_0[2]
+ data_out_0[3] data_out_0[4] data_out_0[5] data_out_0[6] data_out_0[7] data_out_1[0]
+ data_out_1[1] data_out_1[2] data_out_1[3] data_out_1[4] data_out_1[5] data_out_1[6]
+ data_out_1[7] data_out_2[0] data_out_2[1] data_out_2[2] data_out_2[3] data_out_2[4]
+ data_out_2[5] data_out_2[6] data_out_2[7] error pkt_valid read_enb_0 read_enb_1
+ read_enb_2 resetn valid_out_0 valid_out_1 valid_out_2
XTAP_188 VGND VPWR sky130_fd_sc_hd__tapvpwrvgnd_1
XTAP_199 VGND VPWR sky130_fd_sc_hd__tapvpwrvgnd_1
X_3155_ _0740_ _1152_ _1153_ net345 VGND VGND VPWR VPWR _0501_ sky130_fd_sc_hd__a22o_1
X_3086_ _1759_ _1419_ _0835_ _0782_ fifo3.mem\[2\]\[3\] VGND VGND VPWR VPWR _1764_
+ sky130_fd_sc_hd__o311a_1
XFILLER_0_89_461 VGND VGND VPWR VPWR sky130_fd_sc_hd__fill_1
XFILLER_0_76_166 VGND VGND VPWR VPWR sky130_fd_sc_hd__decap_3
XFILLER_0_9_433 VGND VGND VPWR VPWR sky130_fd_sc_hd__decap_4
XFILLER_0_43_81 VPWR VGND VPWR VGND sky130_ef_sc_hd__decap_12
XFILLER_0_91_125 VPWR VGND VPWR VGND sky130_ef_sc_hd__decap_12
X_3988_ _0833_ _0776_ _0789_ _0825_ VGND VGND VPWR VPWR _0928_ sky130_fd_sc_hd__nand4_2
X_2939_ _1544_ _1642_ VGND VGND VPWR VPWR _1643_ sky130_fd_sc_hd__nand2_1
XFILLER_0_17_277 VGND VGND VPWR VPWR sky130_fd_sc_hd__decap_3
XFILLER_0_32_203 VGND VGND VPWR VPWR sky130_fd_sc_hd__fill_2
X_4609_ clknet_leaf_20_clock _0415_ VGND VGND VPWR VPWR fifo1.mem\[4\]\[2\] sky130_fd_sc_hd__dfxtp_1
XFILLER_0_7_81 VGND VGND VPWR VPWR sky130_fd_sc_hd__decap_6
XFILLER_0_70_309 VGND VGND VPWR VPWR sky130_fd_sc_hd__fill_1
XFILLER_0_63_350 VPWR VGND VPWR VGND sky130_ef_sc_hd__decap_12
XFILLER_0_58_122 VGND VGND VPWR VPWR sky130_fd_sc_hd__decap_4
X_3911_ _0656_ fsm1.addr\[1\] VGND VGND VPWR VPWR _0877_ sky130_fd_sc_hd__or2_1
X_3842_ _0631_ _0632_ _0645_ VGND VGND VPWR VPWR _0827_ sky130_fd_sc_hd__o21ai_2
XFILLER_0_73_169 VGND VGND VPWR VPWR sky130_fd_sc_hd__fill_1
XFILLER_0_73_158 VGND VGND VPWR VPWR sky130_fd_sc_hd__decap_8
XFILLER_0_73_136 VGND VGND VPWR VPWR sky130_fd_sc_hd__decap_4
X_3773_ _0633_ _0773_ _0774_ _0775_ _0634_ VGND VGND VPWR VPWR _0776_ sky130_fd_sc_hd__o311a_4
XFILLER_0_54_361 VGND VGND VPWR VPWR sky130_fd_sc_hd__decap_3
XFILLER_0_89_55 VGND VGND VPWR VPWR sky130_fd_sc_hd__fill_1
XFILLER_0_14_225 VGND VGND VPWR VPWR sky130_fd_sc_hd__decap_8
X_2724_ _1119_ _1111_ _1094_ _1123_ VGND VGND VPWR VPWR _1484_ sky130_fd_sc_hd__and4_1
X_2655_ _0797_ _0856_ _1446_ _1460_ VGND VGND VPWR VPWR _0340_ sky130_fd_sc_hd__a31o_1
XFILLER_0_1_141 VGND VGND VPWR VPWR sky130_fd_sc_hd__decap_6
X_4325_ clknet_leaf_27_clock _0139_ VGND VGND VPWR VPWR fifo2.mem\[0\]\[7\] sky130_fd_sc_hd__dfxtp_1
XFILLER_0_1_163 VGND VGND VPWR VPWR sky130_fd_sc_hd__decap_4
X_2586_ _0732_ _0869_ _1433_ _1434_ net250 VGND VGND VPWR VPWR _0297_ sky130_fd_sc_hd__a32o_1
X_4256_ clknet_leaf_2_clock _0070_ VGND VGND VPWR VPWR fifo3.mem\[1\]\[8\] sky130_fd_sc_hd__dfxtp_1
X_3207_ _1829_ _1831_ _1833_ _1836_ VGND VGND VPWR VPWR _1837_ sky130_fd_sc_hd__o22a_1
X_4187_ regis.packet_parity\[3\] _0682_ VGND VGND VPWR VPWR _1064_ sky130_fd_sc_hd__or2_1
X_3138_ _0934_ _1789_ _1795_ VGND VGND VPWR VPWR _0488_ sky130_fd_sc_hd__o21a_1
X_3069_ _0731_ _1754_ _1756_ _1757_ net132 VGND VGND VPWR VPWR _0457_ sky130_fd_sc_hd__a32o_1
XFILLER_0_49_111 VGND VGND VPWR VPWR sky130_fd_sc_hd__fill_1
Xhold170 fifo1.mem\[2\]\[4\] VGND VGND VPWR VPWR net218 sky130_fd_sc_hd__dlygate4sd3_1
Xhold181 fifo1.mem\[6\]\[1\] VGND VGND VPWR VPWR net229 sky130_fd_sc_hd__dlygate4sd3_1
Xhold192 fifo1.mem\[11\]\[1\] VGND VGND VPWR VPWR net240 sky130_fd_sc_hd__dlygate4sd3_1
XFILLER_0_28_306 VGND VGND VPWR VPWR sky130_fd_sc_hd__fill_2
XFILLER_0_50_38 VGND VGND VPWR VPWR sky130_fd_sc_hd__decap_3
XFILLER_0_55_169 VGND VGND VPWR VPWR sky130_fd_sc_hd__fill_1
XFILLER_0_70_117 VGND VGND VPWR VPWR sky130_fd_sc_hd__fill_2
XFILLER_0_3_417 VPWR VGND VPWR VGND sky130_ef_sc_hd__decap_12
XFILLER_0_24_523 VGND VGND VPWR VPWR sky130_fd_sc_hd__decap_8
XFILLER_0_51_320 VGND VGND VPWR VPWR sky130_fd_sc_hd__fill_1
XFILLER_0_70_139 VGND VGND VPWR VPWR sky130_fd_sc_hd__fill_1
XFILLER_0_51_353 VGND VGND VPWR VPWR sky130_fd_sc_hd__decap_8
X_2440_ _1227_ _1256_ _1282_ _1324_ VGND VGND VPWR VPWR _1325_ sky130_fd_sc_hd__nand4_2
XFILLER_0_51_386 VGND VGND VPWR VPWR sky130_fd_sc_hd__decap_6
X_2371_ _1227_ _1256_ _1257_ _1195_ VGND VGND VPWR VPWR _1258_ sky130_fd_sc_hd__o211a_1
X_4110_ net5 _0986_ _0989_ _1010_ VGND VGND VPWR VPWR _1011_ sky130_fd_sc_hd__o211ai_1
XFILLER_0_75_57 VGND VGND VPWR VPWR sky130_fd_sc_hd__decap_8
X_4041_ _0719_ VGND VGND VPWR VPWR _0963_ sky130_fd_sc_hd__clkbuf_4
XFILLER_0_59_431 VGND VGND VPWR VPWR sky130_fd_sc_hd__decap_3
XFILLER_0_59_442 VGND VGND VPWR VPWR sky130_fd_sc_hd__decap_6
XFILLER_0_74_412 VGND VGND VPWR VPWR sky130_fd_sc_hd__decap_8
XFILLER_0_74_489 VGND VGND VPWR VPWR sky130_fd_sc_hd__fill_1
X_3825_ _0814_ VGND VGND VPWR VPWR _0057_ sky130_fd_sc_hd__clkbuf_1
XFILLER_0_46_169 VGND VGND VPWR VPWR sky130_fd_sc_hd__fill_2
X_3756_ _0739_ VGND VGND VPWR VPWR _0763_ sky130_fd_sc_hd__buf_4
X_2707_ net333 _1478_ _1480_ _0932_ VGND VGND VPWR VPWR _0372_ sky130_fd_sc_hd__a22o_1
X_3687_ _0709_ VGND VGND VPWR VPWR _0024_ sky130_fd_sc_hd__clkbuf_1
XFILLER_0_2_450 VPWR VGND VPWR VGND sky130_ef_sc_hd__decap_12
XFILLER_0_71_3 VGND VGND VPWR VPWR sky130_fd_sc_hd__fill_1
X_2638_ _1447_ _1448_ _1450_ _1451_ fifo2.mem\[7\]\[0\] VGND VGND VPWR VPWR _1452_
+ sky130_fd_sc_hd__o311a_1
X_2569_ _0743_ _1425_ _1429_ _1430_ net50 VGND VGND VPWR VPWR _0284_ sky130_fd_sc_hd__a32o_1
X_4308_ clknet_leaf_0_clock _0122_ VGND VGND VPWR VPWR fifo3.mem\[6\]\[8\] sky130_fd_sc_hd__dfxtp_1
X_4239_ clknet_leaf_56_clock _0053_ VGND VGND VPWR VPWR fifo3.mem\[8\]\[0\] sky130_fd_sc_hd__dfxtp_1
XFILLER_0_77_261 VGND VGND VPWR VPWR sky130_fd_sc_hd__fill_2
XFILLER_0_65_445 VGND VGND VPWR VPWR sky130_fd_sc_hd__decap_3
XFILLER_0_80_459 VPWR VGND VPWR VGND sky130_ef_sc_hd__decap_12
XFILLER_0_33_353 VGND VGND VPWR VPWR sky130_fd_sc_hd__fill_1
XFILLER_0_21_526 VPWR VGND VPWR VGND sky130_ef_sc_hd__decap_12
XFILLER_0_60_194 VGND VGND VPWR VPWR sky130_fd_sc_hd__fill_2
XFILLER_0_45_27 VGND VGND VPWR VPWR sky130_fd_sc_hd__decap_3
XFILLER_0_0_29 VGND VGND VPWR VPWR sky130_fd_sc_hd__decap_8
XFILLER_0_8_509 VPWR VGND VPWR VGND sky130_ef_sc_hd__decap_12
XFILLER_0_83_220 VGND VGND VPWR VPWR sky130_fd_sc_hd__decap_4
XFILLER_0_16_309 VGND VGND VPWR VPWR sky130_fd_sc_hd__decap_8
XFILLER_0_9_27 VPWR VGND VPWR VGND sky130_ef_sc_hd__decap_12
X_3610_ _0618_ _0628_ _0630_ _0647_ VGND VGND VPWR VPWR _0648_ sky130_fd_sc_hd__o211a_1
X_4590_ clknet_leaf_9_clock _0396_ VGND VGND VPWR VPWR fifo1.mem\[10\]\[1\] sky130_fd_sc_hd__dfxtp_1
X_3541_ _1772_ _1420_ _1774_ _1775_ fifo3.mem\[11\]\[8\] VGND VGND VPWR VPWR _2101_
+ sky130_fd_sc_hd__o311ai_1
XFILLER_0_10_41 VGND VGND VPWR VPWR sky130_fd_sc_hd__decap_6
X_3472_ _2068_ VGND VGND VPWR VPWR _0549_ sky130_fd_sc_hd__clkbuf_1
X_2423_ _1306_ _1295_ _1307_ VGND VGND VPWR VPWR _1308_ sky130_fd_sc_hd__a21oi_1
X_2354_ _1203_ fifo1.mem\[1\]\[3\] _1240_ VGND VGND VPWR VPWR _1241_ sky130_fd_sc_hd__o21ai_1
X_2285_ net40 net10 VGND VGND VPWR VPWR _1173_ sky130_fd_sc_hd__nand2_2
X_4024_ fifo3.mem\[6\]\[6\] _0944_ _0942_ VGND VGND VPWR VPWR _0951_ sky130_fd_sc_hd__a21bo_1
XFILLER_0_47_423 VPWR VGND VPWR VGND sky130_ef_sc_hd__decap_12
XFILLER_0_74_253 VGND VGND VPWR VPWR sky130_fd_sc_hd__decap_4
XFILLER_0_19_158 VGND VGND VPWR VPWR sky130_fd_sc_hd__decap_8
XFILLER_0_51_81 VPWR VGND VPWR VGND sky130_ef_sc_hd__decap_12
XFILLER_0_74_297 VGND VGND VPWR VPWR sky130_fd_sc_hd__fill_1
X_3808_ fifo3.wr_pointer\[1\] fifo3.wr_pointer\[0\] VGND VGND VPWR VPWR _0802_ sky130_fd_sc_hd__nor2_2
XFILLER_0_34_117 VGND VGND VPWR VPWR sky130_fd_sc_hd__fill_1
X_4788_ clknet_leaf_49_clock _0594_ VGND VGND VPWR VPWR fifo3.mem\[12\]\[7\] sky130_fd_sc_hd__dfxtp_1
X_3739_ fifo1.soft_reset net13 VGND VGND VPWR VPWR _0751_ sky130_fd_sc_hd__nor2b_2
XFILLER_0_85_529 VPWR VGND VPWR VGND sky130_ef_sc_hd__decap_12
XFILLER_0_38_412 VGND VGND VPWR VPWR sky130_fd_sc_hd__decap_8
XFILLER_0_65_297 VGND VGND VPWR VPWR sky130_fd_sc_hd__decap_3
Xclkbuf_leaf_51_clock clknet_3_4__leaf_clock VGND VGND VPWR VPWR clknet_leaf_51_clock
+ sky130_fd_sc_hd__clkbuf_16
XFILLER_0_80_289 VGND VGND VPWR VPWR sky130_fd_sc_hd__fill_2
XTAP_507 VGND VPWR sky130_fd_sc_hd__tapvpwrvgnd_1
XTAP_518 VGND VPWR sky130_fd_sc_hd__tapvpwrvgnd_1
XTAP_529 VGND VPWR sky130_fd_sc_hd__tapvpwrvgnd_1
XFILLER_0_88_345 VPWR VGND VPWR VGND sky130_ef_sc_hd__decap_12
XFILLER_0_88_389 VPWR VGND VPWR VGND sky130_ef_sc_hd__decap_12
X_2972_ _1569_ fifo2.mem\[0\]\[5\] _1570_ VGND VGND VPWR VPWR _1675_ sky130_fd_sc_hd__o21bai_1
XFILLER_0_16_106 VGND VGND VPWR VPWR sky130_fd_sc_hd__decap_3
X_4711_ clknet_leaf_41_clock _0517_ VGND VGND VPWR VPWR net34 sky130_fd_sc_hd__dfxtp_1
XFILLER_0_44_415 VGND VGND VPWR VPWR sky130_fd_sc_hd__decap_4
X_4642_ clknet_leaf_24_clock _0448_ VGND VGND VPWR VPWR fifo2.mem\[6\]\[1\] sky130_fd_sc_hd__dfxtp_1
XFILLER_0_4_501 VPWR VGND VPWR VGND sky130_ef_sc_hd__decap_12
XFILLER_0_44_437 VGND VGND VPWR VPWR sky130_fd_sc_hd__decap_6
Xclkbuf_leaf_19_clock clknet_3_3__leaf_clock VGND VGND VPWR VPWR clknet_leaf_19_clock
+ sky130_fd_sc_hd__clkbuf_16
XFILLER_0_71_278 VGND VGND VPWR VPWR sky130_fd_sc_hd__fill_2
X_4573_ clknet_leaf_56_clock _0379_ VGND VGND VPWR VPWR fifo3.mem\[15\]\[2\] sky130_fd_sc_hd__dfxtp_1
X_3524_ _0939_ _2084_ _2092_ VGND VGND VPWR VPWR _0577_ sky130_fd_sc_hd__a21o_1
X_3455_ _1966_ _1968_ _1975_ _1814_ VGND VGND VPWR VPWR _2056_ sky130_fd_sc_hd__a22o_1
X_2406_ fifo1.count\[3\] net40 _1290_ net10 VGND VGND VPWR VPWR _1291_ sky130_fd_sc_hd__nand4b_1
X_3386_ fifo2.mem\[8\]\[1\] fifo2.mem\[9\]\[1\] fifo2.mem\[10\]\[1\] fifo2.mem\[11\]\[1\]
+ _1669_ _1702_ VGND VGND VPWR VPWR _1999_ sky130_fd_sc_hd__mux4_1
X_2337_ fifo1.mem\[11\]\[2\] _1220_ _1224_ VGND VGND VPWR VPWR _1225_ sky130_fd_sc_hd__o21ai_1
X_2268_ _1155_ _1160_ _1005_ VGND VGND VPWR VPWR _1161_ sky130_fd_sc_hd__o21ai_1
X_4007_ _0939_ _0924_ _0940_ VGND VGND VPWR VPWR _0113_ sky130_fd_sc_hd__a21o_1
XFILLER_0_46_81 VGND VGND VPWR VPWR sky130_fd_sc_hd__decap_3
X_2199_ _0613_ _0749_ _1122_ _1123_ VGND VGND VPWR VPWR _1124_ sky130_fd_sc_hd__and4b_1
XFILLER_0_47_220 VGND VGND VPWR VPWR sky130_fd_sc_hd__decap_4
XFILLER_0_47_275 VGND VGND VPWR VPWR sky130_fd_sc_hd__decap_4